7

O -12.056291526944781 -12.199695602303109 -12.81751780096648
N -11.626714097425735 -11.321580593706214 -13.469781045012146
C 9.25446616873827 9.583205883792754 9.252435265943133
C 8.818844504122227 8.69050875563121 9.939300439884835
N -12.474405435198028 -13.03924006860249 -12.120866581929777
H 9.636268351217652 10.372997848672743 8.648928309134368
H 8.447832035490391 7.913805207033746 10.567505227662428
