7

O -0.5803819463752399 0.8889172691503363 1.1906539318545892
N -1.208624803027752 -0.1262931380008855 1.2777973609957645
C 0.7240355676147727 -0.06719162176294335 -0.8488965862967272
C -0.041454180415749164 -0.9806839857820052 -0.5667226474472502
N 0.26298751880891524 1.599199770733276 0.7101003839162013
H 1.4687983571736907 0.5771451890703574 -1.25357230632616
H -0.6253605137786378 -1.8910934834081357 -0.5093601366964179
