7

C 0.12856067763320045 0.477502082074032 0.6436325077562532
H -1.8405552479007272 -0.28333988768879015 -0.1926913300644759
C -0.7515744702032231 -0.21362110753323715 -0.21472565332578317
O 1.2376968116763694 -0.5198099235417121 -0.8544115038511371
N 1.3499753701392696 0.27299203160739843 0.23115717414360107
N -0.05623519550473963 -0.8192651592229848 -1.134111802096862
H -0.06786803524756467 1.0855419941077655 1.5211506819445828
